Version 4
SHEET 1 2512 680
WIRE 1360 -592 1360 -624
WIRE 1680 -592 1360 -592
WIRE 2000 -592 1680 -592
WIRE 2320 -592 2000 -592
WIRE 1552 -560 1184 -560
WIRE 1872 -560 1552 -560
WIRE 2192 -560 1872 -560
WIRE 1360 -512 1360 -592
WIRE 1680 -512 1680 -592
WIRE 2000 -512 2000 -592
WIRE 2320 -512 2320 -592
WIRE 1536 -480 1536 -768
WIRE 1536 -480 1504 -480
WIRE 1856 -480 1856 -768
WIRE 1856 -480 1824 -480
WIRE 2176 -480 2176 -768
WIRE 2176 -480 2144 -480
WIRE 2496 -480 2496 -768
WIRE 2496 -480 2464 -480
WIRE 1184 -448 1184 -560
WIRE 1184 -448 976 -448
WIRE 1264 -448 1184 -448
WIRE 1552 -448 1552 -560
WIRE 1584 -448 1552 -448
WIRE 1872 -448 1872 -560
WIRE 1904 -448 1872 -448
WIRE 2192 -448 2192 -560
WIRE 2224 -448 2192 -448
WIRE 1264 -416 1072 -416
WIRE 1536 -416 1536 -480
WIRE 1584 -416 1536 -416
WIRE 1856 -416 1856 -480
WIRE 1904 -416 1856 -416
WIRE 2176 -416 2176 -480
WIRE 2224 -416 2176 -416
WIRE 976 -384 976 -448
WIRE 1264 -352 1216 -352
WIRE 1584 -352 1536 -352
WIRE 1904 -352 1872 -352
WIRE 2224 -352 2192 -352
WIRE 1392 -304 1392 -336
WIRE 1392 -304 1360 -304
WIRE 976 -288 976 -304
WIRE 1216 -288 1216 -352
WIRE 1536 -288 1536 -352
WIRE 1536 -288 1216 -288
WIRE 1872 -288 1872 -352
WIRE 1872 -288 1536 -288
WIRE 2192 -288 2192 -352
WIRE 2192 -288 1872 -288
WIRE 1216 -256 1216 -288
WIRE 1360 -256 1360 -304
WIRE 1712 -256 1712 -336
WIRE 1712 -256 1360 -256
WIRE 2032 -256 2032 -336
WIRE 2032 -256 1712 -256
WIRE 2352 -256 2352 -336
WIRE 2352 -256 2032 -256
WIRE 1360 -208 1360 -256
WIRE 1072 -160 1072 -416
WIRE 1072 -160 704 -160
WIRE 1216 -160 1216 -176
WIRE 784 -112 704 -112
WIRE 512 -80 480 -80
WIRE 656 -80 592 -80
WIRE 784 -64 784 -112
WIRE 784 -64 704 -64
WIRE -688 -48 -688 -80
WIRE 704 -48 704 -64
WIRE 480 -32 480 -80
WIRE 480 -32 368 -32
WIRE 784 0 704 0
WIRE 448 16 368 16
WIRE 480 32 480 -32
WIRE 512 32 480 32
WIRE 656 32 592 32
WIRE -688 48 -688 32
WIRE -608 48 -688 48
WIRE -192 48 -192 32
WIRE 176 48 -128 48
WIRE 320 48 256 48
WIRE 784 48 784 0
WIRE 784 48 704 48
WIRE -688 64 -688 48
WIRE -608 64 -608 48
WIRE -224 64 -432 64
WIRE 448 64 448 16
WIRE 448 64 368 64
WIRE -128 80 -128 48
WIRE -128 80 -160 80
WIRE -96 80 -128 80
WIRE 16 80 -16 80
WIRE 368 80 368 64
WIRE 704 80 704 48
WIRE -224 96 -384 96
WIRE -384 128 -384 96
WIRE -192 128 -192 112
WIRE 16 128 16 80
WIRE 448 128 368 128
WIRE 176 160 96 160
WIRE 320 160 256 160
WIRE -688 176 -688 144
WIRE 448 176 448 128
WIRE 448 176 368 176
WIRE 96 192 96 160
WIRE 368 208 368 176
WIRE 1024 272 976 272
WIRE 1232 272 1104 272
WIRE 1456 272 1232 272
WIRE 1504 272 1456 272
WIRE 1616 272 1584 272
WIRE 1760 272 1696 272
WIRE 1456 352 1456 272
WIRE 1504 352 1456 352
WIRE 1856 352 1856 -416
WIRE 1856 352 1584 352
WIRE 1232 368 1232 272
WIRE 1232 368 1200 368
WIRE -432 384 -432 64
WIRE 976 384 976 272
WIRE 976 384 -432 384
WIRE 1136 384 976 384
WIRE 1232 400 1200 400
WIRE 1456 432 1456 352
WIRE 1504 432 1456 432
WIRE 2176 432 2176 -416
WIRE 2176 432 1584 432
WIRE 1232 448 1232 400
WIRE 1456 512 1456 432
WIRE 1504 512 1456 512
WIRE 2496 512 2496 -480
WIRE 2496 512 1584 512
FLAG -192 128 vcc
IOPIN -192 128 In
FLAG -192 32 vdd
IOPIN -192 32 In
FLAG -608 64 0
FLAG -688 -80 vdd
IOPIN -688 -80 Out
FLAG -688 176 vcc
IOPIN -688 176 Out
FLAG 16 128 0
FLAG -384 208 0
FLAG 704 80 0
FLAG 368 208 0
FLAG 96 272 0
FLAG 704 -240 vcc5
IOPIN 704 -240 In
FLAG 368 -112 vcc5
IOPIN 368 -112 In
FLAG -544 48 0
FLAG -544 -32 vcc5
IOPIN -544 -32 Out
FLAG 1216 -160 0
FLAG 976 -288 0
FLAG 1360 -128 0
FLAG 1360 -704 0
FLAG 1760 272 0
FLAG 1232 448 0
FLAG 1168 416 vdd
IOPIN 1168 416 In
FLAG 1168 352 vcc
IOPIN 1168 352 In
DATAFLAG 1536 -672 ""
DATAFLAG 1856 -672 ""
DATAFLAG 2176 -672 ""
DATAFLAG 2496 -688 ""
DATAFLAG 1024 -160 ""
DATAFLAG 656 384 ""
DATAFLAG 1360 272 ""
SYMBOL OpAmps\\opamp2 -192 16 R0
SYMATTR InstName U1
SYMATTR Value uA741
SYMBOL voltage -688 -64 R0
WINDOW 123 0 0 Left 0
WINDOW 39 0 0 Left 0
SYMATTR InstName V1
SYMATTR Value 15
SYMBOL voltage -688 48 R0
WINDOW 123 0 0 Left 0
WINDOW 39 0 0 Left 0
SYMATTR InstName V2
SYMATTR Value 15
SYMBOL res 0 64 R90
WINDOW 0 0 56 VBottom 2
WINDOW 3 32 56 VTop 2
SYMATTR InstName R1
SYMATTR Value 10k
SYMBOL voltage -384 112 R0
WINDOW 123 0 0 Left 0
WINDOW 39 0 0 Left 0
SYMATTR InstName V3
SYMATTR Value 1
SYMBOL nmos4 656 -160 R0
SYMATTR InstName M1
SYMATTR Value2 l=0.5u w=400u
SYMBOL nmos4 656 -48 R0
SYMATTR InstName M2
SYMATTR Value2 l=0.5u w=400u
SYMBOL res 688 -256 R0
SYMATTR InstName R2
SYMATTR Value 10k
SYMBOL res 608 -96 R90
WINDOW 0 0 56 VBottom 2
WINDOW 3 32 56 VTop 2
SYMATTR InstName R3
SYMATTR Value 10k
SYMBOL res 608 16 R90
WINDOW 0 0 56 VBottom 2
WINDOW 3 32 56 VTop 2
SYMATTR InstName R4
SYMATTR Value 10k
SYMBOL nmos4 320 -32 R0
SYMATTR InstName M3
SYMATTR Value2 l=0.5u w=400u
SYMBOL nmos4 320 80 R0
SYMATTR InstName M4
SYMATTR Value2 l=0.5u w=400u
SYMBOL res 352 -128 R0
SYMATTR InstName R5
SYMATTR Value 10k
SYMBOL res 272 32 R90
WINDOW 0 0 56 VBottom 2
WINDOW 3 32 56 VTop 2
SYMATTR InstName R6
SYMATTR Value 10k
SYMBOL res 272 144 R90
WINDOW 0 0 56 VBottom 2
WINDOW 3 32 56 VTop 2
SYMATTR InstName R7
SYMATTR Value 10k
SYMBOL voltage 96 176 R0
WINDOW 123 0 0 Left 0
WINDOW 39 0 0 Left 0
SYMATTR InstName V4
SYMATTR Value PULSE(0 5 0 0 0 5m 10m 100)
SYMBOL voltage -544 -48 R0
WINDOW 123 0 0 Left 0
WINDOW 39 0 0 Left 0
SYMATTR InstName V5
SYMATTR Value 5
SYMBOL T_FF_scimatic 1376 -416 R0
SYMATTR InstName X1
SYMBOL T_FF_scimatic 1696 -416 R0
SYMATTR InstName X2
SYMBOL T_FF_scimatic 2016 -416 R0
SYMATTR InstName X3
SYMBOL T_FF_scimatic 2336 -416 R0
SYMATTR InstName X4
SYMBOL voltage 1216 -272 R0
WINDOW 123 0 0 Left 0
WINDOW 39 0 0 Left 0
SYMATTR InstName V6
SYMATTR Value 5
SYMBOL voltage 976 -400 R0
WINDOW 123 0 0 Left 0
WINDOW 39 0 0 Left 0
SYMATTR InstName V8
SYMATTR Value 5
SYMBOL voltage 1360 -608 R180
WINDOW 0 24 96 Left 2
WINDOW 3 24 16 Left 2
WINDOW 123 0 0 Left 0
WINDOW 39 0 0 Left 0
SYMATTR InstName V9
SYMATTR Value 5
SYMBOL voltage 1360 -224 R0
WINDOW 3 24 44 Left 2
WINDOW 123 0 0 Left 0
WINDOW 39 0 0 Left 0
SYMATTR Value PULSE(0 5 5m 0 0 20m 40m 1)
SYMATTR InstName V10
SYMBOL res 1488 256 M90
WINDOW 0 0 56 VBottom 2
WINDOW 3 32 56 VTop 2
SYMATTR InstName R8
SYMATTR Value 10k
SYMBOL res 1488 336 M90
WINDOW 0 0 56 VBottom 2
WINDOW 3 32 56 VTop 2
SYMATTR InstName R9
SYMATTR Value 5k
SYMBOL res 1488 416 M90
WINDOW 0 0 56 VBottom 2
WINDOW 3 32 56 VTop 2
SYMATTR InstName R10
SYMATTR Value 2.5k
SYMBOL res 1488 496 M90
WINDOW 0 0 56 VBottom 2
WINDOW 3 32 56 VTop 2
SYMATTR InstName R11
SYMATTR Value 1.25k
SYMBOL OpAmps\\opamp2 1168 448 R180
SYMATTR InstName U2
SYMATTR Value uA741
SYMBOL res 1008 256 M90
WINDOW 0 0 56 VBottom 2
WINDOW 3 32 56 VTop 2
SYMATTR InstName R12
SYMATTR Value 1k
SYMBOL voltage 1600 272 M90
WINDOW 123 0 0 Left 0
WINDOW 39 0 0 Left 0
SYMATTR InstName V7
SYMATTR Value 5
TEXT -760 280 Left 2 !.tran 0 500m 0 20
TEXT -688 -232 Left 2 !.include uA741.txt
TEXT 808 -176 Left 2 ;out
TEXT 136 24 Left 2 ;in1
TEXT 136 136 Left 2 ;in2
TEXT -688 -200 Left 2 !.MODEL NMOS NMOS(KP=200u,VTO=0.4)
