Version 4
SHEET 1 1172 680
WIRE 32 0 32 -32
WIRE 352 0 32 0
WIRE 672 0 352 0
WIRE 992 0 672 0
WIRE 224 32 -144 32
WIRE 544 32 224 32
WIRE 864 32 544 32
WIRE 32 80 32 0
WIRE 352 80 352 0
WIRE 672 80 672 0
WIRE 992 80 992 0
WIRE 208 112 208 -176
WIRE 208 112 176 112
WIRE 528 112 528 -176
WIRE 528 112 496 112
WIRE 848 112 848 -176
WIRE 848 112 816 112
WIRE 1168 112 1168 -176
WIRE 1168 112 1136 112
WIRE -144 144 -144 32
WIRE -144 144 -352 144
WIRE -64 144 -144 144
WIRE 224 144 224 32
WIRE 256 144 224 144
WIRE 544 144 544 32
WIRE 576 144 544 144
WIRE 864 144 864 32
WIRE 896 144 864 144
WIRE -64 176 -256 176
WIRE 208 176 208 112
WIRE 256 176 208 176
WIRE 528 176 528 112
WIRE 576 176 528 176
WIRE 848 176 848 112
WIRE 896 176 848 176
WIRE -352 208 -352 144
WIRE -256 208 -256 176
WIRE -64 240 -112 240
WIRE 256 240 208 240
WIRE 576 240 544 240
WIRE 896 240 864 240
WIRE 64 288 64 256
WIRE 64 288 32 288
WIRE -352 304 -352 288
WIRE -256 304 -256 288
WIRE -112 304 -112 240
WIRE 208 304 208 240
WIRE 208 304 -112 304
WIRE 544 304 544 240
WIRE 544 304 208 304
WIRE 864 304 864 240
WIRE 864 304 544 304
WIRE -112 336 -112 304
WIRE 32 336 32 288
WIRE 384 336 384 256
WIRE 384 336 32 336
WIRE 704 336 704 256
WIRE 704 336 384 336
WIRE 1024 336 1024 256
WIRE 1024 336 704 336
WIRE 32 384 32 336
WIRE -112 432 -112 416
FLAG -112 432 0
FLAG -352 304 0
FLAG -256 304 0
FLAG 32 464 0
FLAG 32 -112 0
SYMBOL T_FF_scimatic 48 176 R0
SYMATTR InstName X1
SYMBOL T_FF_scimatic 368 176 R0
SYMATTR InstName X2
SYMBOL T_FF_scimatic 688 176 R0
SYMATTR InstName X3
SYMBOL T_FF_scimatic 1008 176 R0
SYMATTR InstName X4
SYMBOL voltage -112 320 R0
WINDOW 123 0 0 Left 0
WINDOW 39 0 0 Left 0
SYMATTR InstName V1
SYMATTR Value 5
SYMBOL voltage -256 192 R0
WINDOW 123 0 0 Left 0
WINDOW 39 0 0 Left 0
SYMATTR InstName V2
SYMATTR Value PULSE(0 5 0 1m 1m 5m 10m 10)
SYMBOL voltage -352 192 R0
WINDOW 123 0 0 Left 0
WINDOW 39 0 0 Left 0
SYMATTR InstName V3
SYMATTR Value 5
SYMBOL voltage 32 -16 R180
WINDOW 0 24 96 Left 2
WINDOW 3 24 16 Left 2
WINDOW 123 0 0 Left 0
WINDOW 39 0 0 Left 0
SYMATTR InstName V4
SYMATTR Value 5
SYMBOL voltage 32 368 R0
WINDOW 3 24 44 Left 2
WINDOW 123 0 0 Left 0
WINDOW 39 0 0 Left 0
SYMATTR Value PULSE(0 5 5m 0 0 20m 40m 1)
SYMATTR InstName V5
TEXT -384 488 Left 2 !.tran 0 100m
