Version 4
SHEET 1 880 680
WIRE 144 80 144 0
WIRE 448 112 288 112
WIRE 48 144 -144 144
WIRE 48 176 -64 176
WIRE -64 192 -64 176
WIRE 448 224 288 224
WIRE 48 240 0 240
WIRE 0 272 0 240
WIRE 176 304 176 256
FLAG -144 224 0
FLAG -64 272 0
FLAG 0 352 0
FLAG 176 384 0
FLAG 144 -80 0
SYMBOL T_FF_scimatic 160 176 R0
SYMATTR InstName X1
SYMBOL voltage 0 256 R0
WINDOW 3 24 44 Left 2
WINDOW 123 0 0 Left 0
WINDOW 39 0 0 Left 0
SYMATTR InstName V1
SYMATTR Value 5
SYMBOL voltage -144 128 R0
WINDOW 123 0 0 Left 0
WINDOW 39 0 0 Left 0
SYMATTR InstName V2
SYMATTR Value PULSE(0 5 0 1m 1m 10m 40m 4)
SYMBOL voltage -64 176 R0
WINDOW 123 0 0 Left 0
WINDOW 39 0 0 Left 0
SYMATTR InstName V3
SYMATTR Value PULSE(0 5 0 1m 1m 5m 20m 4)
SYMBOL voltage 176 288 R0
WINDOW 123 0 0 Left 0
WINDOW 39 0 0 Left 0
SYMATTR InstName V4
SYMATTR Value PWL(0 5 30m 5 31m 0)
SYMBOL voltage 144 16 R180
WINDOW 0 24 96 Left 2
WINDOW 3 24 16 Left 2
WINDOW 123 0 0 Left 0
WINDOW 39 0 0 Left 0
SYMATTR InstName V5
SYMATTR Value 5
TEXT -178 408 Left 2 !.tran 100m
