Version 4
SHEET 1 1348 1032
WIRE 1328 32 960 32
WIRE -976 48 -976 16
WIRE -976 144 -976 128
WIRE -880 144 -976 144
WIRE 1056 144 1056 112
WIRE 784 160 688 160
WIRE 960 160 960 32
WIRE 960 160 864 160
WIRE 1024 160 960 160
WIRE -880 176 -976 176
WIRE 128 176 128 144
WIRE 1200 176 1088 176
WIRE 1328 176 1328 32
WIRE 1328 176 1280 176
WIRE 96 192 -240 192
WIRE 1024 192 896 192
WIRE 272 208 160 208
WIRE 400 208 352 208
WIRE 96 224 -32 224
WIRE 1056 240 1056 208
WIRE 400 256 400 208
WIRE 128 272 128 240
WIRE -976 288 -976 256
WIRE 688 288 688 240
WIRE 896 304 896 192
WIRE -240 320 -240 272
WIRE -32 336 -32 304
WIRE 992 496 928 496
WIRE 1136 496 1072 496
WIRE 64 512 0 512
WIRE 208 512 144 512
WIRE 928 592 928 496
WIRE 1008 592 928 592
WIRE 1136 592 1136 496
WIRE 1136 592 1072 592
WIRE 0 608 0 512
WIRE 80 608 0 608
WIRE 208 608 208 512
WIRE 208 608 144 608
WIRE 1040 720 1040 688
WIRE 112 736 112 704
WIRE 736 736 672 736
WIRE 848 736 816 736
WIRE 928 736 928 592
WIRE 928 736 912 736
WIRE 1008 736 928 736
WIRE -128 752 -256 752
WIRE 0 752 0 608
WIRE 0 752 -48 752
WIRE 80 752 0 752
WIRE 1136 752 1136 592
WIRE 1136 752 1072 752
WIRE 1184 752 1136 752
WIRE 208 768 208 608
WIRE 208 768 144 768
WIRE 256 768 208 768
WIRE 1008 768 880 768
WIRE 80 784 -48 784
WIRE 880 800 880 768
WIRE -48 816 -48 784
WIRE 1040 816 1040 784
WIRE 112 832 112 800
WIRE 672 864 672 816
WIRE -256 880 -256 832
WIRE 880 944 880 880
WIRE -48 960 -48 896
FLAG -976 288 0
FLAG -976 16 0
FLAG -880 176 vcc
FLAG -880 144 vee
FLAG 128 144 vcc
FLAG 128 272 vee
FLAG 400 256 0
FLAG -240 320 0
FLAG -32 336 0
FLAG 112 704 vcc
FLAG 112 832 vee
FLAG -256 880 0
FLAG -48 960 0
FLAG 256 768 out1
FLAG 1040 688 vcc
FLAG 1040 816 vee
FLAG 672 864 0
FLAG 880 944 0
FLAG 1184 752 out2
FLAG 1056 112 vcc
FLAG 1056 240 vee
FLAG 688 288 0
FLAG 896 304 0
SYMBOL OpAmps\\opamp2 128 144 R0
SYMATTR InstName U2
SYMATTR Value uA741
SYMBOL voltage -976 32 R0
WINDOW 123 0 0 Left 0
WINDOW 39 0 0 Left 0
SYMATTR InstName V1
SYMATTR Value 12
SYMBOL voltage -976 160 R0
WINDOW 123 0 0 Left 0
WINDOW 39 0 0 Left 0
SYMATTR InstName V2
SYMATTR Value 12
SYMBOL voltage -240 176 R0
WINDOW 123 0 0 Left 0
WINDOW 39 0 0 Left 0
SYMATTR InstName V3
SYMATTR Value SINE(0 5 1k)
SYMBOL voltage -32 208 R0
WINDOW 123 0 0 Left 0
WINDOW 39 0 0 Left 0
SYMATTR InstName V4
SYMATTR Value 2.5
SYMBOL res 368 192 R90
WINDOW 0 0 56 VBottom 2
WINDOW 3 32 56 VTop 2
SYMATTR InstName R1
SYMATTR Value 1k
SYMBOL OpAmps\\opamp2 112 704 R0
SYMATTR InstName U1
SYMATTR Value uA741
SYMBOL voltage -256 736 R0
WINDOW 123 0 0 Left 0
WINDOW 39 0 0 Left 0
SYMATTR InstName V5
SYMATTR Value SINE(0 1 1k)
SYMBOL cap 144 592 R90
WINDOW 0 0 32 VBottom 2
WINDOW 3 32 32 VTop 2
SYMATTR InstName C1
SYMATTR Value 0.5µ
SYMBOL res 160 496 R90
WINDOW 0 0 56 VBottom 2
WINDOW 3 32 56 VTop 2
SYMATTR InstName R3
SYMATTR Value 16k
SYMBOL res -64 800 R0
SYMATTR InstName R4
SYMATTR Value 1.3k
SYMBOL res -32 736 R90
WINDOW 0 0 56 VBottom 2
WINDOW 3 32 56 VTop 2
SYMATTR InstName R5
SYMATTR Value 1.5k
SYMBOL OpAmps\\opamp2 1040 688 R0
SYMATTR InstName U3
SYMATTR Value uA741
SYMBOL voltage 672 720 R0
WINDOW 123 0 0 Left 0
WINDOW 39 0 0 Left 0
SYMATTR InstName V6
SYMATTR Value SINE(0 1 1k)
SYMBOL cap 1072 576 R90
WINDOW 0 0 32 VBottom 2
WINDOW 3 32 32 VTop 2
SYMATTR InstName C2
SYMATTR Value 0.001n
SYMBOL res 1088 480 R90
WINDOW 0 0 56 VBottom 2
WINDOW 3 32 56 VTop 2
SYMATTR InstName R2
SYMATTR Value 16k
SYMBOL res 864 784 R0
SYMATTR InstName R6
SYMATTR Value 1.3k
SYMBOL res 832 720 R90
WINDOW 0 0 56 VBottom 2
WINDOW 3 32 56 VTop 2
SYMATTR InstName R7
SYMATTR Value 1.5k
SYMBOL cap 912 720 R90
WINDOW 0 0 32 VBottom 2
WINDOW 3 32 32 VTop 2
SYMATTR InstName C3
SYMATTR Value 0.01µ
SYMBOL OpAmps\\opamp2 1056 112 R0
SYMATTR InstName U4
SYMATTR Value uA741
SYMBOL voltage 688 144 R0
WINDOW 123 0 0 Left 0
WINDOW 39 0 0 Left 0
SYMATTR InstName V7
SYMATTR Value SINE(0 1 1k)
SYMBOL res 1296 160 R90
WINDOW 0 0 56 VBottom 2
WINDOW 3 32 56 VTop 2
SYMATTR InstName R8
SYMATTR Value 5k
SYMBOL res 880 144 R90
WINDOW 0 0 56 VBottom 2
WINDOW 3 32 56 VTop 2
SYMATTR InstName R9
SYMATTR Value 1k
TEXT -1008 368 Left 2 !.tran 0 10m 0 10
TEXT -1008 336 Left 2 !.include uA741.txt
TEXT -248 376 Left 2 ;Inverting Op Amp Comparator
TEXT -280 1016 Left 2 ;Inverting Op Amp Integrator
TEXT 648 1000 Left 2 ;Inverting Op Amp Differentiator
TEXT 680 344 Left 2 ;Inverting Op Amp amplifier
